data_sample_structure
_symmetry_space_group_name_H-M   'P 1'
_cell_length_a   10.0
_cell_length_b   10.0
_cell_length_c   10.0
_cell_angle_alpha   90
_cell_angle_beta    90
_cell_angle_gamma   90
_symmetry_Int_Tables_number 1
loop_
 _atom_site_label
 _atom_site_type_symbol
 _atom_site_fract_x
 _atom_site_fract_y
 _atom_site_fract_z
  Atom1  Ba  0.276620  0.550210  1.314200
  Atom2  Ba  0.829870  0.550220  1.314200
  Atom3  Ba  0.276620  0.000140  1.866700
  Atom4  Ba  0.829870  0.000150  1.866700
  Atom5  Ba  -0.000004  0.279220  1.313400
  Atom6  Ba  0.553240  0.279220  1.313400
  Atom7  Ba  -0.000013  0.827590  1.310900
  Atom8  Ba  0.553250  0.827580  1.310900
  Atom9  Ba  -0.000015  0.553520  1.590300
  Atom10  Ba  0.553250  0.553520  1.590300
  Atom11  Ba  -0.000010  -0.003176  1.590300
  Atom12  Ba  0.553250  -0.003171  1.590300
  Atom13  Ba  0.276620  0.553200  1.867500
  Atom14  Ba  0.829860  0.553230  1.867500
  Atom15  Ba  0.276550  0.000159  2.420500
  Atom16  Ba  0.829940  0.000400  2.420800
  Atom17  Ba  -0.000026  0.276690  1.867500
  Atom18  Ba  0.553270  0.276700  1.867500
  Atom19  Ba  -0.000071  0.830040  1.867300
  Atom20  Ba  0.553310  0.829960  1.867300
  Atom21  Ba  -0.000089  0.553070  2.143900
  Atom22  Ba  0.553330  0.553070  2.143700
  Atom23  Ba  -0.000057  0.000025  2.144100
  Atom24  Ba  0.553300  0.000028  2.144100
  Atom25  Ba  0.276460  0.555000  2.423500
  Atom26  Ba  0.830030  0.554970  2.423900
  Atom27  Ba  0.272300  -0.002858  2.974600
  Atom28  Ba  0.833850  0.000667  2.974700
  Atom29  Ba  -0.000367  0.276290  2.421500
  Atom30  Ba  0.553620  0.276250  2.421500
  Atom31  Ba  -0.000362  0.832320  2.420400
  Atom32  Ba  0.553710  0.828540  2.420300
  Atom33  Ba  -0.000647  0.549410  2.698800
  Atom34  Ba  0.554070  0.549060  2.699300
  Atom35  Ba  -0.000639  0.003039  2.699600
  Atom36  Ba  0.554040  0.003264  2.695900
  Atom37  Sr  0.276620  0.274440  1.587900
  Atom38  Sr  0.829870  0.274450  1.588000
  Atom39  Sr  0.276620  0.835600  1.039300
  Atom40  Sr  0.829870  0.835600  1.039300
  Atom41  Sr  0.276630  0.276640  2.144000
  Atom42  Sr  0.829860  0.276660  2.144200
  Atom43  Sr  0.276620  0.830040  1.590800
  Atom44  Sr  0.829860  0.830070  1.590800
  Atom45  Sr  0.276690  0.279690  2.694100
  Atom46  Sr  0.830970  0.279080  2.696700
  Atom47  Sr  0.276590  0.829590  2.144300
  Atom48  Sr  0.829880  0.829900  2.144500
  Atom49  O   -0.000003  0.549790  1.316800
  Atom50  O   0.553240  0.549800  1.316800
  Atom51  O   0.000008  0.000402  1.865500
  Atom52  O   0.553230  0.000400  1.865500
  Atom53  O   -0.000000  0.276330  1.588200
  Atom54  O   0.553240  0.276330  1.588200
  Atom55  O   -0.000001  0.833420  1.039200
  Atom56  O   0.553240  0.833410  1.039200
